CM GR5V VEE
GW	1	5	0.0,	14.9,	-4.0,	0.0,	0.0145,	0.0,	8.000e-04
GW	2	5	0.0,	-14.9,	-4.0,	0.0,	-0.0145,	0.0,	8.000e-04
GW	3	5	0.0,	0.0145,	-10.0,	0.0,	0.0145,	0.0,	7.000e-04
GW	4	5	0.0,	-0.0145,	-10.0,	0.0,	-0.0145,	0.0,	7.000e-04
GW	5	5	1.44,	-0.0145,	-10.0,	1.44,	0.0145,	-10.0,	7.000e-04
GW	6	5	0.0,	-0.0145,	-10.0,	1.44,	-0.0145,	-10.0,	7.000e-04
GW	7	5	0.0,	0.0145,	-10.0,	1.44,	0.0145,	-10.0,	7.000e-04
GE

